FoamFile
{
    version     2.0;
    format      ascii;
    class       dictionary;
    location    "system";
    object      snappyHexMeshDict;
}

castellatedMesh true;
snap true;
addLayers false;

mergeTolerance 1e-6;

geometry
{
    pillars
    {
        type triSurfaceMesh;
        file "pillars.stl";
    }
}

castellatedMeshControls
{
    maxLocalCells 200000;
    maxGlobalCells 2000000;
    minRefinementCells 0;
    nCellsBetweenLevels 3;

    features
    (
    );

    refinementSurfaces
    {
        pillars
        {
            level (1 3);
        }
    }

    refinementRegions
    {
    }

    resolveFeatureAngle 30;

    locationInMesh (0.5 0.1 0.0005);

    allowFreeStandingZoneFaces true;
}

snapControls
{
    nSmoothPatch 3;
    tolerance 2.0;
    nSolveIter 30;
    nRelaxIter 5;
    nFeatureSnapIter 10;
}

addLayersControls
{
    relativeSizes true;

    layers
    {
    }

    expansionRatio 1.2;
    finalLayerThickness 0.3;
    minThickness 0.1;

    nGrow 0;
    featureAngle 60;

    nRelaxIter 5;
    nSmoothSurfaceNormals 1;
    nSmoothNormals 3;
    nSmoothThickness 10;

    maxFaceThicknessRatio 0.5;
    maxThicknessToMedialRatio 0.3;
    minMedianAxisAngle 90;

    nBufferCellsNoExtrude 0;
    nLayerIter 50;
}

meshQualityControls
{
    maxNonOrtho 70;
    maxBoundarySkewness 20;
    maxInternalSkewness 4;
    maxConcave 80;
    minFlatness 0.5;
    minVol 1e-13;
    minTetQuality 1e-9;
    minArea -1;
    minTwist 0.02;
    minDeterminant 0.001;
    minFaceWeight 0.02;
    minVolRatio 0.01;
    minTriangleTwist -1;

    nSmoothScale 4;
    errorReduction 0.75;
}