FoamFile
{
    version     2.0;
    format      ascii;
    class       dictionary;
    object      controlDict;
}

application     icoFoam;

startFrom       startTime;
startTime       0;
stopAt          endTime;
endTime         0.05;

deltaT          1e-6;

// Adaptive timestepping: solver auto-shrinks dt to keep Courant stable.
// This prevents numerical explosion when flow accelerates around pillars.
adjustTimeStep  yes;
maxCo           0.5;
maxDeltaT       1e-5;

writeControl    adjustableRunTime;
writeInterval   0.0025;

purgeWrite      0;
writeFormat     ascii;
writePrecision  6;
compression     off;
timeFormat      general;
timePrecision   6;
runTimeModifiable true;
