FoamFile
{
    version     2.0;
    format      ascii;
    class       dictionary;
    location    "system";
    object      fvSolution;
}

solvers
{
    p
    {
        solver          PCG;
        preconditioner  DIC;
        tolerance       1e-6;
        relTol          0.1;
    }
    pFinal
    {
        solver          PCG;
        preconditioner  DIC;
        tolerance       1e-8;
        relTol          0;
    }
    U
    {
        solver          PBiCGStab;
        preconditioner  DILU;
        tolerance       1e-6;
        relTol          0.1;
    }
    UFinal
    {
        solver          PBiCGStab;
        preconditioner  DILU;
        tolerance       1e-8;
        relTol          0;
    }
}


PIMPLE
{
    nOuterCorrectors 2;
    nCorrectors      2;
    nNonOrthogonalCorrectors 0;
}