/*--------------------------------*- C++ -*----------------------------------*\
| =========                 |                                                 |
| \\      /  F ield         | OpenFOAM: The Open Source CFD Toolbox           |
|  \\    /   O peration     | Version:  2512                                  |
|   \\  /    A nd           | Website:  www.openfoam.com                      |
|    \\/     M anipulation  |                                                 |
\*---------------------------------------------------------------------------*/
FoamFile
{
    version     2.0;
    format      ascii;
    class       dictionary;
    object      snappyHexMeshDict;
}
// * * * * * * * * * * * * * * * * * * * * * * * * * * * * * * * * * * * * * //

castellatedMesh true;
snap            true;
addLayers       false; // We don't need layers, but v2512 needs the dict block below

geometry
{
    pillars.stl
    {
        type triSurfaceMesh;
        name pillars;
        scale 0.001;  // Converts Fusion 360 'mm' export down to OpenFOAM 'meters'
    }
}

castellatedMeshControls
{
    maxLocalCells 1000000;
    maxGlobalCells 2000000;
    minRefinementCells 10;
    maxLoadUnbalance 0.10;
    nCellsBetweenLevels 1;

    features
    (
    );

    refinementSurfaces
    {
        pillars
        {
            level (2 2);
            patchInfo
            {
                type wall;
            }
        }
    }

    resolveFeatureAngle 30;

    refinementRegions
    {
    }

    // The GUI will automatically update this coordinate!
    locationInMesh (-0.00018 0.0 0.0);
    
    allowFreeStandingZoneFaces true;
}

snapControls
{
    nSmoothPatch 3;
    tolerance 2.0;
    nSolveIter 30;
    nRelaxIter 5;
    nFeatureSnapIter 10;
    implicitFeatureSnap false;
    explicitFeatureSnap true;
    multiRegionFeatureSnap false;
}

// MANDATORY FOR OPENFOAM 2512 (even if addLayers is false)
addLayersControls
{
    relativeSizes       true;
    layers              {}
    expansionRatio      1.0;
    finalLayerThickness 0.1;
    minThickness        0.01;
    nGrow               0;
}

// MANDATORY FOR OPENFOAM 2512
meshQualityControls
{
    maxNonOrtho 65;
    maxBoundarySkewness 20;
    maxInternalSkewness 4;
    maxConcave 80;
    minVol 1e-20;      // Allows for micro-scale cell volumes
    minTetQuality 1e-30;
    minArea -1;
    minTwist 0.02;
    minDeterminant 0.001;
    minFaceWeight 0.02;
    minVolRatio 0.01;
    minTriangleTwist -1;
    nSmoothScale 4;
    errorReduction 0.75;
}

mergeTolerance 1e-6;

// ************************************************************************* //