/*--------------------------------*- C++ -*----------------------------------*\
| =========                 |                                                 |
| \\      /  F ield         | OpenFOAM: The Open Source CFD Toolbox           |
|  \\    /   O peration     | Version:  2512                                  |
|   \\  /    A nd           | Website:  www.openfoam.com                      |
|    \\/     M anipulation  |                                                 |
\*---------------------------------------------------------------------------*/
FoamFile
{
    version     2.0;
    format      ascii;
    arch        "LSB;label=32;scalar=64";
    class       polyBoundaryMesh;
    location    "constant/polyMesh";
    object      boundary;
}
// * * * * * * * * * * * * * * * * * * * * * * * * * * * * * * * * * * * * * //

4
(
    inlet
    {
        type            patch;
        nFaces          500;
        startFace       1075901;
    }
    outlet
    {
        type            patch;
        nFaces          500;
        startFace       1076401;
    }
    walls
    {
        type            wall;
        inGroups        1(wall);
        nFaces          25008;
        startFace       1076901;
    }
    pillars
    {
        type            wall;
        inGroups        1(wall);
        nFaces          137400;
        startFace       1101909;
    }
)

// ************************************************************************* //
